# generated using pymatgen
data_Y2SiO5
_symmetry_space_group_name_H-M   'P 1'
_cell_length_a   14.43523963
_cell_length_b   6.74280580
_cell_length_c   10.42107312
_cell_angle_alpha   90.00000000
_cell_angle_beta   122.18778465
_cell_angle_gamma   90.00000000
_symmetry_Int_Tables_number   1
_chemical_formula_structural   Y2SiO5
_chemical_formula_sum   'Y16 Si8 O40'
_cell_volume   858.43002606
_cell_formula_units_Z   8
loop_
 _symmetry_equiv_pos_site_id
 _symmetry_equiv_pos_as_xyz
  1  'x, y, z'
loop_
 _atom_type_symbol
 _atom_type_oxidation_number
  Y3+  3.0
  Si4+  4.0
  O2-  -2.0
loop_
 _atom_site_type_symbol
 _atom_site_label
 _atom_site_symmetry_multiplicity
 _atom_site_fract_x
 _atom_site_fract_y
 _atom_site_fract_z
 _atom_site_occupancy
  Y3+  Y0  1  0.96332979  0.25533889  0.03445076  1
  Y3+  Y1  1  0.03667021  0.25533889  0.46554924  1
  Y3+  Y2  1  0.03667021  0.74466111  0.96554924  1
  Y3+  Y3  1  0.96332979  0.74466111  0.53445076  1
  Y3+  Y4  1  0.14170104  0.62240711  0.33570632  1
  Y3+  Y5  1  0.85829896  0.62240711  0.16429368  1
  Y3+  Y6  1  0.85829896  0.37759289  0.66429368  1
  Y3+  Y7  1  0.14170104  0.37759289  0.83570632  1
  Y3+  Y8  1  0.46332979  0.75533889  0.03445076  1
  Y3+  Y9  1  0.53667021  0.75533889  0.46554924  1
  Y3+  Y10  1  0.53667021  0.24466111  0.96554924  1
  Y3+  Y11  1  0.46332979  0.24466111  0.53445076  1
  Y3+  Y12  1  0.64170104  0.12240711  0.33570632  1
  Y3+  Y13  1  0.35829896  0.12240711  0.16429368  1
  Y3+  Y14  1  0.35829896  0.87759289  0.66429368  1
  Y3+  Y15  1  0.64170104  0.87759289  0.83570632  1
  Si4+  Si16  1  0.68154337  0.59056790  0.30687324  1
  Si4+  Si17  1  0.81845663  0.09056790  0.19312676  1
  Si4+  Si18  1  0.31845663  0.40943210  0.69312676  1
  Si4+  Si19  1  0.18154337  0.90943210  0.80687324  1
  Si4+  Si20  1  0.18154337  0.09056790  0.30687324  1
  Si4+  Si21  1  0.31845663  0.59056790  0.19312676  1
  Si4+  Si22  1  0.81845663  0.90943210  0.69312676  1
  Si4+  Si23  1  0.68154337  0.40943210  0.80687324  1
  O2-  O24  1  0.98227567  0.59530297  0.10269917  1
  O2-  O25  1  0.01772433  0.59530297  0.39730083  1
  O2-  O26  1  0.01772433  0.40469703  0.89730083  1
  O2-  O27  1  0.98227567  0.40469703  0.60269917  1
  O2-  O28  1  0.20072594  0.93102776  0.43616332  1
  O2-  O29  1  0.79927406  0.93102776  0.06383668  1
  O2-  O30  1  0.79927406  0.06897224  0.56383668  1
  O2-  O31  1  0.20072594  0.06897224  0.93616332  1
  O2-  O32  1  0.79662616  0.64706462  0.32456078  1
  O2-  O33  1  0.70337384  0.14706462  0.17543922  1
  O2-  O34  1  0.20337384  0.35293538  0.67543922  1
  O2-  O35  1  0.29662616  0.85293538  0.82456078  1
  O2-  O36  1  0.11929791  0.71380613  0.82091119  1
  O2-  O37  1  0.88070209  0.71380613  0.67908881  1
  O2-  O38  1  0.88070209  0.28619387  0.17908881  1
  O2-  O39  1  0.11929791  0.28619387  0.32091119  1
  O2-  O40  1  0.09007095  0.99660780  0.64028764  1
  O2-  O41  1  0.40992905  0.49660780  0.85971236  1
  O2-  O42  1  0.90992905  0.00339220  0.35971236  1
  O2-  O43  1  0.59007095  0.50339220  0.14028764  1
  O2-  O44  1  0.48227567  0.09530297  0.10269917  1
  O2-  O45  1  0.51772433  0.09530297  0.39730083  1
  O2-  O46  1  0.51772433  0.90469703  0.89730083  1
  O2-  O47  1  0.48227567  0.90469703  0.60269917  1
  O2-  O48  1  0.70072594  0.43102776  0.43616332  1
  O2-  O49  1  0.29927406  0.43102776  0.06383668  1
  O2-  O50  1  0.29927406  0.56897224  0.56383668  1
  O2-  O51  1  0.70072594  0.56897224  0.93616332  1
  O2-  O52  1  0.29662616  0.14706462  0.32456078  1
  O2-  O53  1  0.20337384  0.64706463  0.17543922  1
  O2-  O54  1  0.70337384  0.85293537  0.67543922  1
  O2-  O55  1  0.79662616  0.35293538  0.82456078  1
  O2-  O56  1  0.61929791  0.21380613  0.82091119  1
  O2-  O57  1  0.38070209  0.21380613  0.67908881  1
  O2-  O58  1  0.38070209  0.78619387  0.17908881  1
  O2-  O59  1  0.61929791  0.78619387  0.32091119  1
  O2-  O60  1  0.59007095  0.49660780  0.64028764  1
  O2-  O61  1  0.90992905  0.99660780  0.85971236  1
  O2-  O62  1  0.40992905  0.50339220  0.35971236  1
  O2-  O63  1  0.09007095  0.00339220  0.14028764  1
